FINISH
/CLEAR
L1=2
L2=1.5
A=0.002
F1=10000
F2=20000
E=2E11
MU=0.3

/PREP7
ET,1,LINK180
MP,EX,1,E
MP,PRXY,1,MU
SECTYPE,1,LINK
SECDATA,A

N,1,0,0,0
N,2,L1,0,0
N,3,2*L1,0,0
N,4,3*L1,0,0
N,5,2.5*L1,L2,0
N,6,1.5*L1,L2,0
N,7,0.5*L1,L2,0

E,1,2
E,2,3
E,3,4
E,4,5
E,5,6
E,6,7
E,7,1
E,7,2
E,6,2
E,6,3
E,5,3
E,5,4
/PNUM,NODE,1
/ESHAPE,1
GPLOT
/SOL
D,1,UX,0
D,1,UY,0
D,4,UY,0
D,ALL,UZ,0

F,7,FY,-F1
F,5,FX,F2
SOLVE
/POST1
!PLDISP,1
PLESOL,S,X
